*Heading
** Job name: Job-42 Model name: Model-1-Scale-08-Spline-larger1-triangle-3ptbending-LMSC-8RVE
** Generated by: Abaqus/CAE 2023
*Preprint, echo=NO, model=NO, history=NO, contact=NO
**
** PARTS
**
*Part, name=Part-1
*Node
      1,           0.,           0.
      2, 0.0392800011,           0.
      3, 0.0785600021,           0.
      4,  0.117839999,           0.
      5,  0.157120004,           0.
      6,  0.196400002,           0.
      7,  0.235679999,           0.
      8,  0.274960011,           0.
      9,  0.314240009,           0.
     10,  0.353520006,           0.
     11,  0.392800003,           0.
     12,  0.432080001,           0.
     13,  0.471359998,           0.
     14,  0.510640025,           0.
     15,  0.549920022,           0.
     16,   0.58920002,           0.
     17,  0.628480017,           0.
     18,  0.667760015,           0.
     19,  0.707040012,           0.
     20,  0.746320009,           0.
** ... 214 like lines cut
*Element, type=CPE4R
  1,   1,   2,  28,  27
  2,   2,   3,  29,  28
  3,   3,   4,  30,  29
  4,   4,   5,  31,  30
  5,   5,   6,  32,  31
  6,   6,   7,  33,  32
  7,   7,   8,  34,  33
  8,   8,   9,  35,  34
  9,   9,  10,  36,  35
 10,  10,  11,  37,  36
 11,  11,  12,  38,  37
 12,  12,  13,  39,  38
 13,  13,  14,  40,  39
 14,  14,  15,  41,  40
 15,  15,  16,  42,  41
 16,  16,  17,  43,  42
 17,  17,  18,  44,  43
 18,  18,  19,  45,  44
 19,  19,  20,  46,  45
 20,  20,  21,  47,  46
** ... 180 like lines cut
*Nset, nset=Set-LMSC-1, generate
   1,  234,    1
*Elset, elset=Set-LMSC-1, generate
   1,  200,    1
** Section: Section-LMSC
*Solid Section, elset=Set-LMSC-1, controls=EC-1, material=MATRIX-LMSC
,
*End Part
**  
*Part, name=Part-Roll-bottom-1
*Node
      1, 0.0299999993, -1.92820968e-11
      2, 0.0299999993, 0.0399999991
      3, -0.0299999993, 0.0399999991
      4, -0.0399999991, 0.0299999993
      5, -0.0399999991,           0.
      6, 0.0399999991,           0.
      7, 0.0399999991, 0.0299999993
      8, 0.0299999993, 0.0199999996
      9, 0.00999999978, 0.0399999991
     10, -0.00999999978, 0.0399999991
     11, -0.0370710678, 0.0370710678
     12, -0.0399999991, 0.0149999997
     13, -0.0225000009,           0.
     14, -0.00499999989,           0.
     15, 0.0125000002,           0.
     16, 0.0399999991, 0.0149999997
     17, 0.0370710678, 0.0370710678
     18, -0.027406361, 0.0254522525
     19, -0.0121403877, 0.0169602744
     20, 0.00422660215, 0.0194933787
*Element, type=CPS3
 1, 19, 18, 13
 2, 20, 10, 19
 3, 18,  4, 12
 4, 18, 11,  4
 5,  8,  2,  9
 6, 19, 13, 14
 7, 18,  3, 11
 8, 13, 12,  5
 9, 20, 15,  8
10, 20,  8,  9
11, 15,  1,  8
12, 18, 10,  3
13, 18, 12, 13
14, 20, 19, 14
15, 19, 10, 18
16, 20,  9, 10
17, 20, 14, 15
18, 17,  2,  7
19,  8,  1, 16
20,  8,  7,  2
21, 16,  1,  6
22, 16,  7,  8
*Nset, nset=Set-roll-bottom, generate
  1,  20,   1
*Elset, elset=Set-roll-bottom, generate
  1,  22,   1
** Section: Section-Steel
*Solid Section, elset=Set-roll-bottom, material=Steel
,
*End Part
**  
*Part, name=Part-Roll-top-1
*Node
      1, 0.0282842703, -0.0282842703
      2, 0.0282842703,           0.
      3,           0.,           0.
      4,           0., -0.0399999991
      5, 0.0282842703, 0.0282842703
      6,           0., 0.0399999991
      7, 0.0399999991,           0.
      8, -0.0399999991,           0.
      9, 0.0282842703, -0.0141421352
     10, 0.0141421352,           0.
     11,           0., -0.0199999996
     12,  0.015307337, -0.0369551815
     13, 0.0282842703, 0.0141421352
     14,  0.015307337, 0.0369551815
     15,           0., 0.0199999996
     16, 0.0369551815,  0.015307337
     17, -0.0199999996,           0.
     18, -0.0369551815, -0.015307337
     19, -0.0282842703, -0.0282842703
     20, -0.015307337, -0.0369551815
** ... 8 like lines cut
*Element, type=CPS3
1,  1,  9, 25
2, 25, 12,  1
3,  9,  2, 10
4, 10, 25,  9
5, 12, 25, 11
6, 11,  4, 12
7, 25, 10,  3
8,  3, 11, 25
 9,  2, 13, 10
10, 13, 26, 10
11, 13,  5, 26
12,  5, 14, 26
13, 10, 26,  3
14, 26, 15,  3
15, 26, 14, 15
16, 14,  6, 15
17, 13, 16,  5
18, 13,  7, 16
19, 13,  2,  7
20, 11, 20,  4
** ... 18 like lines cut
*Nset, nset=Set-Steel-1, generate
  1,  28,   1
*Elset, elset=Set-Steel-1, generate
  1,  38,   1
** Section: Section-Steel
*Solid Section, elset=Set-Steel-1, material=Steel
,
*End Part
**  
**
** ASSEMBLY
**
*Assembly, name=Assembly
**  
*Instance, name=Part-1-1, part=Part-1
*End Instance
**  
*Instance, name=Part-Roll-bottom-1-1, part=Part-Roll-bottom-1
       0.982,        -0.04,           0.
       0.982,        -0.04,           0.,        0.982,        -0.04, 1.00000001268805, 89.9999992730282
*End Instance
**  
*Instance, name=Part-Roll-top-1-1, part=Part-Roll-top-1
       0.245,         0.36,           0.
       0.245,         0.36,           0.,        0.245,         0.36, -1.00000001268805, 89.9999992730282
*End Instance
**  
*Node
      1,  0.245000005,  0.360000014,           0.
*Nset, nset=Set-5, instance=Part-Roll-bottom-1-1, generate
  1,  20,   1
*Elset, elset=Set-5, instance=Part-Roll-bottom-1-1, generate
  1,  22,   1
*Nset, nset=Set-RP-Encastre-left
 1,
*Nset, nset=Set-XSYM, instance=Part-1-1, generate
  26,  234,   26
*Nset, nset=Set-XSYM, instance=Part-Roll-bottom-1-1
  1,  5,  6, 13, 14, 15
*Elset, elset=Set-XSYM, instance=Part-1-1, generate
  25,  200,   25
*Elset, elset=Set-XSYM, instance=Part-Roll-bottom-1-1
  6,  8, 11, 17, 21
*Elset, elset=_s_Surf-Left_S2, internal, instance=Part-Roll-top-1-1
  2,  6, 17, 18, 20, 23, 27, 28, 29, 32, 35, 36, 37
*Elset, elset=_s_Surf-Left_S1, internal, instance=Part-Roll-top-1-1
 12, 16, 24
*Surface, type=ELEMENT, name=s_Surf-Left
_s_Surf-Left_S2, S2
_s_Surf-Left_S1, S1
** Constraint: Constraint-3
*Coupling, constraint name=Constraint-3, ref node=Set-RP-Encastre-left, surface=s_Surf-Left
*Kinematic
*End Assembly
** 
** ELEMENT CONTROLS
** 
**Section Controls, name=EC-1, DISTORTION CONTROL=YES, hourglass=ENHANCED
*Section Controls, name=EC-1, DISTORTION CONTROL=YES, ELEMENT DELETION=YES, hourglass=ENHANCED
1., 1., 1.
*Amplitude, name=Amp-1, smooth=0.25
             0.,              0.,              0.00012,              0.16
** 
** MATERIALS
** 
*Material, name=MATRIX-LMSC
*Density
 1.76e-09,
*DEPVAR, DELETE=15
**Depvar
     15,
1,  INCEPS0,    IncrementSrain 1
2,  INCEPS1,    IncrementSrain 2
3,  INCEPS2,    IncrementSrain 3
4,  INCEPS3,    IncrementSrain 4
5,  MEM0,    LMSC  memory state 0
6,  MEM1,    LMSC  memory state 1
7,  MEM2,    LMSC  memory state 2
8, MEM3,    LMSC  memory state 3
9, NORM,    Increment_Norm
10, HCCRITPRED,    HCRIT_PRED 
11, Damp_1,    Damp_Strain_1
12, Damp_2,    Damp_Strain_2
13, Damp_3,    Damp_Strain_3
14, Damp_4,    Damp_Strain_4
15, ElmDEL,    ElmDEL
*User Material, constants=3
5.,5.,8.
** ----------------------------------------------------------------
** 
*Material, name=Steel
*Density
 1.76e-09,
*Elastic
250000., 0.3
** 
** INTERACTION PROPERTIES
** 
*Surface Interaction, name=IntProp-1
*Friction
 0.05,
*Surface Behavior, pressure-overclosure=HARD
** 
** BOUNDARY CONDITIONS
** 
** Name: BC-Encastre-Left Type: Symmetry/Antisymmetry/Encastre
*Boundary
Set-RP-Encastre-left, ENCASTRE
** ----------------------------------------------------------------
** 
** STEP: Step-1
** 
*Step, name=Step-1, nlgeom=YES
*Dynamic, Explicit
, 0.00024
** 
** BOUNDARY CONDITIONS
** 
** Name: BC-Disp Type: Displacement/Rotation
*Boundary, amplitude=Amp-1
Set-5, 2, 2, 0.15
** Name: BC-XSYM Type: Symmetry/Antisymmetry/Encastre
*Boundary
Set-XSYM, XSYMM
** 
** INTERACTIONS
** 
** Interaction: Int-1
*Contact, op=NEW
*Contact Inclusions, ALL EXTERIOR
*Contact Property Assignment
 ,  , IntProp-1
** 
** OUTPUT REQUESTS
** 
*Restart, write, number interval=1, time marks=NO
** 
** FIELD OUTPUT: F-Output-1
** 
*Output, field, variable=PRESELECT
** 
** FIELD OUTPUT: F-Output-3
** 
*Output, field, number interval=250
*Node Output
U, V
** 
** FIELD OUTPUT: F-Output-2
** 
*Output, field, number interval=250
*Element Output, directions=YES
E, LE, S, SDV
** 
** HISTORY OUTPUT: H-Output-3
** 
*Output, history
*Node Output, nset=Set-RP-Encastre-left
RF1, RF2, RF3, RM1, RM2, RM3
*End Step
